&share
 wrf_core = 'ARW',
 max_dom = 2,
 start_date = '2023-07-20_00:00:00',
              '2023-07-20_00:00:00',
              '2023-07-20_00:00:00',
              '2023-07-20_00:00:00',
 end_date   = '2023-08-13-00:00:00',
              '2023-08-13-00:00:00',
              '2023-08-13-00:00:00',
              '2023-08-13-00:00:00',
 interval_seconds = 21600,
 io_form_geogrid = 2,
 opt_output_from_geogrid_path = './',
 debug_level = 0
/

&geogrid
 parent_id         =   1, 1, 2, 3,
 parent_grid_ratio =   1, 15, 5, 5,
 i_parent_start    =   1, 366, 164, 77,
 j_parent_start    =   1, 148, 90, 80,
 s_we              =   1,   1,   1,   1,
 e_we              =  443, 406, 161, 161,
 s_sn              =   1,   1,   1,   1,
 e_sn              =  266, 362, 161, 161,
 geog_data_res     = '30s','30s','30s', '30s',
 dx        = 12000,
 dy        = 12000,
 map_proj  = 'lambert',
 ref_lat   = 40,
 ref_lon   = -97,
 truelat1  = 33,
 truelat2  = 45,
 stand_lon = -97,
 geog_data_path = '/work/01178/tg804586/Data/WPS_GEOG'
 opt_geogrid_tbl_path = '/work2/07655/tg869546/stampede3/WRF-4.5.2/WPS/WPS-4.5/geogrid/'
/

&ungrib
 out_format = 'WPS',
 prefix     = 'GFS',
/

&metgrid
 fg_name         = 'GFS'
 constants_name  = ''
 io_form_metgrid = 2,
 opt_output_from_metgrid_path = './',
 opt_metgrid_tbl_path         = '/work2/07655/tg869546/stampede3/WRF-4.5.2/WPS/WPS-4.5/metgrid/',
/
